
  rDOCK(R)          3D
libRbt.so/2013.1/901 2013/11/27
 25 27  0  0  0  0  0  0  0  0999 V2000
    7.8144   37.3044   24.5949 O   0  0  0  0  0  0
    9.0021   37.2492   25.2882 N   0  0  0  0  0  0
    9.2353   36.4298   26.3020 N   0  0  0  0  0  0
   10.4169   36.6972   26.8470 N   0  0  0  0  0  0
   10.9327   37.7402   26.1607 C   0  0  0  0  0  0
   12.2203   38.3284   26.3938 N   0  0  0  0  0  0
   13.0808   37.9647   27.4860 C   0  0  0  0  0  0
   14.4707   38.1017   27.3423 C   0  0  0  0  0  0
   15.3275   37.7739   28.3977 C   0  0  0  0  0  0
   14.8026   37.3210   29.6106 C   0  0  0  0  0  0
   13.4199   37.2030   29.7723 C   0  0  0  0  0  0
   12.5597   37.5289   28.7188 C   0  0  0  0  0  0
   10.0536   38.0733   25.1574 C   0  0  0  0  0  0
   10.1573   39.1824   24.2541 N   0  0  0  0  0  0
   11.4153   39.7230   23.8138 C   0  0  0  0  0  0
   12.4908   39.2927   24.3129 O   0  0  0  0  0  0
   11.4782   40.7910   22.7867 C   0  0  0  0  0  0
   10.3548   41.1299   22.0074 C   0  0  0  0  0  0
   10.4389   42.1448   21.0486 C   0  0  0  0  0  0
   11.6378   42.8356   20.8608 C   0  0  0  0  0  0
   12.7545   42.5181   21.6362 C   0  0  0  0  0  0
   12.6762   41.5053   22.5970 C   0  0  0  0  0  0
    7.6078   38.0902   23.9901 H   0  0  0  0  0  0
   12.5899   38.9896   25.6737 H   0  0  0  0  0  0
    9.2654   39.6325   23.9553 H   0  0  0  0  0  0
  1  2  1  0  0  0
  2  3  1  0  0  0
  3  4  2  0  0  0
  4  5  1  0  0  0
  5  6  1  0  0  0
  6  7  1  0  0  0
  7  8  2  0  0  0
  8  9  1  0  0  0
  9 10  2  0  0  0
 10 11  1  0  0  0
 11 12  2  0  0  0
  5 13  2  0  0  0
 13 14  1  0  0  0
 14 15  1  0  0  0
 15 16  2  0  0  0
 15 17  1  0  0  0
 17 18  2  0  0  0
 18 19  1  0  0  0
 19 20  2  0  0  0
 20 21  1  0  0  0
 21 22  2  0  0  0
 13  2  1  0  0  0
 22 17  1  0  0  0
 12  7  1  0  0  0
  1 23  1  0  0  0
  6 24  1  0  0  0
 14 25  1  0  0  0
M  END
>  <CHROM.0>
31.16630404,-1.24904507,68.63224680,68.10236020,68.70625185

>  <CHROM.1>
164.83034972,-6.49137094,151.94075512,-157.19858206,-13.11649063,11.60070465
38.91227439,25.23414776,1.83971167,-0.40272824,-0.88616127

>  <Name>

>  <RI>
0

>  <Rbt.Current_Directory>
/home/yang/LSTM-chemical-project/protein-ligand-ppara

>  <Rbt.Executable>
rbdock ($Id: //depot/dev/client3/rdock/2013.1/src/exe/rbdock.cxx#4 $)

>  <Rbt.Library>
libRbt.so (2013.1, Build901 2013/11/27)

>  <Rbt.Parameter_File>
/home/yang/rdock/fixed_side_chain/data/scripts/dock.prm

>  <Rbt.Receptor>
cavity.prm

>  <SCORE>
-17.701

>  <SCORE.INTER>
-11.4052

>  <SCORE.INTER.CONST>
1

>  <SCORE.INTER.POLAR>
-0.0920737

>  <SCORE.INTER.REPUL>
0

>  <SCORE.INTER.ROT>
4

>  <SCORE.INTER.VDW>
-20.4922

>  <SCORE.INTER.norm>
-0.518418

>  <SCORE.INTRA>
-3.86523

>  <SCORE.INTRA.DIHEDRAL>
-11.9706

>  <SCORE.INTRA.DIHEDRAL.0>
29.3685

>  <SCORE.INTRA.POLAR>
-0.158856

>  <SCORE.INTRA.POLAR.0>
0

>  <SCORE.INTRA.REPUL>
0

>  <SCORE.INTRA.REPUL.0>
0

>  <SCORE.INTRA.VDW>
2.66019

>  <SCORE.INTRA.VDW.0>
-2.10232

>  <SCORE.INTRA.norm>
-0.175692

>  <SCORE.RESTR>
0

>  <SCORE.RESTR.CAVITY>
0

>  <SCORE.RESTR.norm>
0

>  <SCORE.SYSTEM>
-2.43055

>  <SCORE.SYSTEM.CONST>
0

>  <SCORE.SYSTEM.DIHEDRAL>
2.35935

>  <SCORE.SYSTEM.POLAR>
-1.16037

>  <SCORE.SYSTEM.REPUL>
0.1365

>  <SCORE.SYSTEM.VDW>
-0.347451

>  <SCORE.SYSTEM.norm>
-0.110479

>  <SCORE.heavy>
22

>  <SCORE.norm>
-0.80459

$$$$

  rDOCK(R)          3D
libRbt.so/2013.1/901 2013/11/27
 25 27  0  0  0  0  0  0  0  0999 V2000
   18.2238   36.8882   29.5334 O   0  0  0  0  0  0
   16.9946   37.4967   29.6491 N   0  0  0  0  0  0
   15.9878   37.3073   28.8100 N   0  0  0  0  0  0
   14.9829   38.1244   29.1056 N   0  0  0  0  0  0
   15.3866   38.8698   30.1574 C   0  0  0  0  0  0
   14.5890   39.8568   30.8267 N   0  0  0  0  0  0
   15.0469   40.6300   31.9483 C   0  0  0  0  0  0
   15.0226   40.0618   33.2320 C   0  0  0  0  0  0
   15.4820   40.7864   34.3361 C   0  0  0  0  0  0
   15.9837   42.0791   34.1654 C   0  0  0  0  0  0
   16.0340   42.6456   32.8893 C   0  0  0  0  0  0
   15.5746   41.9244   31.7826 C   0  0  0  0  0  0
   16.6465   38.4564   30.5208 C   0  0  0  0  0  0
   17.4895   39.0408   31.5231 N   0  0  0  0  0  0
   18.6993   38.4204   31.9924 C   0  0  0  0  0  0
   18.9999   37.2594   31.6019 O   0  0  0  0  0  0
   19.6036   39.1145   32.9411 C   0  0  0  0  0  0
   21.0028   38.9730   32.8618 C   0  0  0  0  0  0
   21.8341   39.6425   33.7656 C   0  0  0  0  0  0
   21.2824   40.4633   34.7515 C   0  0  0  0  0  0
   19.8977   40.6222   34.8321 C   0  0  0  0  0  0
   19.0617   39.9564   33.9306 C   0  0  0  0  0  0
   18.5605   36.5766   28.6304 H   0  0  0  0  0  0
   13.6578   40.0905   30.4136 H   0  0  0  0  0  0
   17.1632   39.9334   31.9522 H   0  0  0  0  0  0
  1  2  1  0  0  0
  2  3  1  0  0  0
  3  4  2  0  0  0
  4  5  1  0  0  0
  5  6  1  0  0  0
  6  7  1  0  0  0
  7  8  2  0  0  0
  8  9  1  0  0  0
  9 10  2  0  0  0
 10 11  1  0  0  0
 11 12  2  0  0  0
  5 13  2  0  0  0
 13 14  1  0  0  0
 14 15  1  0  0  0
 15 16  2  0  0  0
 15 17  1  0  0  0
 17 18  2  0  0  0
 18 19  1  0  0  0
 19 20  2  0  0  0
 20 21  1  0  0  0
 21 22  2  0  0  0
 13  2  1  0  0  0
 22 17  1  0  0  0
 12  7  1  0  0  0
  1 23  1  0  0  0
  6 24  1  0  0  0
 14 25  1  0  0  0
M  END
>  <CHROM.0>
-154.54593795,5.66938276,68.53830675,62.62521147,67.69271117

>  <CHROM.1>
25.69675186,179.72051645,-80.83101225,-18.73822324,-143.94918050,17.44232217
39.41563596,31.97959864,-2.46738447,-0.35008673,0.81363713

>  <Name>

>  <RI>
0

>  <Rbt.Current_Directory>
/home/yang/LSTM-chemical-project/protein-ligand-ppara

>  <Rbt.Executable>
rbdock ($Id: //depot/dev/client3/rdock/2013.1/src/exe/rbdock.cxx#4 $)

>  <Rbt.Library>
libRbt.so (2013.1, Build901 2013/11/27)

>  <Rbt.Parameter_File>
/home/yang/rdock/fixed_side_chain/data/scripts/dock.prm

>  <Rbt.Receptor>
cavity.prm

>  <SCORE>
-13.0552

>  <SCORE.INTER>
-8.07489

>  <SCORE.INTER.CONST>
1

>  <SCORE.INTER.POLAR>
-1.12982

>  <SCORE.INTER.REPUL>
0

>  <SCORE.INTER.ROT>
4

>  <SCORE.INTER.VDW>
-13.6335

>  <SCORE.INTER.norm>
-0.36704

>  <SCORE.INTRA>
-1.52059

>  <SCORE.INTRA.DIHEDRAL>
-8.39577

>  <SCORE.INTRA.DIHEDRAL.0>
29.3685

>  <SCORE.INTRA.POLAR>
0

>  <SCORE.INTRA.POLAR.0>
0

>  <SCORE.INTRA.REPUL>
0

>  <SCORE.INTRA.REPUL.0>
0

>  <SCORE.INTRA.VDW>
2.6773

>  <SCORE.INTRA.VDW.0>
-2.10232

>  <SCORE.INTRA.norm>
-0.0691175

>  <SCORE.RESTR>
0

>  <SCORE.RESTR.CAVITY>
0

>  <SCORE.RESTR.norm>
0

>  <SCORE.SYSTEM>
-3.45977

>  <SCORE.SYSTEM.CONST>
0

>  <SCORE.SYSTEM.DIHEDRAL>
1.63307

>  <SCORE.SYSTEM.POLAR>
-1.15572

>  <SCORE.SYSTEM.REPUL>
0.00164999

>  <SCORE.SYSTEM.VDW>
-0.355097

>  <SCORE.SYSTEM.norm>
-0.157262

>  <SCORE.heavy>
22

>  <SCORE.norm>
-0.59342

$$$$

  rDOCK(R)          3D
libRbt.so/2013.1/901 2013/11/27
 25 27  0  0  0  0  0  0  0  0999 V2000
    9.2372   41.9711   21.9048 O   0  0  0  0  0  0
   10.5694   41.7710   22.1869 N   0  0  0  0  0  0
   11.5584   42.4608   21.6394 N   0  0  0  0  0  0
   12.7305   41.9558   22.0083 N   0  0  0  0  0  0
   12.4629   40.8943   22.7998 C   0  0  0  0  0  0
   13.4474   40.0793   23.4517 N   0  0  0  0  0  0
   13.1366   39.0930   24.4497 C   0  0  0  0  0  0
   12.0933   39.3370   25.3572 C   0  0  0  0  0  0
   11.7584   38.3840   26.3241 C   0  0  0  0  0  0
   12.4525   37.1730   26.3833 C   0  0  0  0  0  0
   13.4769   36.9101   25.4704 C   0  0  0  0  0  0
   13.8156   37.8611   24.5024 C   0  0  0  0  0  0
   11.0987   40.7917   22.9371 C   0  0  0  0  0  0
   10.3763   39.7517   23.6104 N   0  0  0  0  0  0
    9.1353   39.9770   24.3017 C   0  0  0  0  0  0
    8.6948   41.1518   24.4309 O   0  0  0  0  0  0
    8.3605   38.8528   24.8809 C   0  0  0  0  0  0
    8.7940   37.5185   24.7558 C   0  0  0  0  0  0
    8.0475   36.4766   25.3158 C   0  0  0  0  0  0
    6.8677   36.7524   26.0100 C   0  0  0  0  0  0
    6.4345   38.0719   26.1522 C   0  0  0  0  0  0
    7.1772   39.1178   25.5957 C   0  0  0  0  0  0
    8.5640   42.0830   22.6532 H   0  0  0  0  0  0
   14.4335   40.1430   23.1113 H   0  0  0  0  0  0
   10.8165   38.8065   23.6277 H   0  0  0  0  0  0
  1  2  1  0  0  0
  2  3  1  0  0  0
  3  4  2  0  0  0
  4  5  1  0  0  0
  5  6  1  0  0  0
  6  7  1  0  0  0
  7  8  2  0  0  0
  8  9  1  0  0  0
  9 10  2  0  0  0
 10 11  1  0  0  0
 11 12  2  0  0  0
  5 13  2  0  0  0
 13 14  1  0  0  0
 14 15  1  0  0  0
 15 16  2  0  0  0
 15 17  1  0  0  0
 17 18  2  0  0  0
 18 19  1  0  0  0
 19 20  2  0  0  0
 20 21  1  0  0  0
 21 22  2  0  0  0
 13  2  1  0  0  0
 22 17  1  0  0  0
 12  7  1  0  0  0
  1 23  1  0  0  0
  6 24  1  0  0  0
 14 25  1  0  0  0
M  END
>  <CHROM.0>
-154.43404147,2.28116312,67.86626400,-162.73304460,67.60590626

>  <CHROM.1>
-130.08802439,169.80053474,-35.68993888,-40.87887888,-1.23435340,10.52382526
39.45484909,24.23786221,0.80262888,0.06888041,-0.65594339

>  <Name>

>  <RI>
0

>  <Rbt.Current_Directory>
/home/yang/LSTM-chemical-project/protein-ligand-ppara

>  <Rbt.Executable>
rbdock ($Id: //depot/dev/client3/rdock/2013.1/src/exe/rbdock.cxx#4 $)

>  <Rbt.Library>
libRbt.so (2013.1, Build901 2013/11/27)

>  <Rbt.Parameter_File>
/home/yang/rdock/fixed_side_chain/data/scripts/dock.prm

>  <Rbt.Receptor>
cavity.prm

>  <SCORE>
70.2581

>  <SCORE.INTER>
70.7778

>  <SCORE.INTER.CONST>
1

>  <SCORE.INTER.POLAR>
-0.00883743

>  <SCORE.INTER.REPUL>
0.110968

>  <SCORE.INTER.ROT>
4

>  <SCORE.INTER.VDW>
60.853

>  <SCORE.INTER.norm>
3.21717

>  <SCORE.INTRA>
1.81708

>  <SCORE.INTRA.DIHEDRAL>
-1.63871

>  <SCORE.INTRA.DIHEDRAL.0>
29.3685

>  <SCORE.INTRA.POLAR>
-0.134072

>  <SCORE.INTRA.POLAR.0>
0

>  <SCORE.INTRA.REPUL>
0

>  <SCORE.INTRA.REPUL.0>
0

>  <SCORE.INTRA.VDW>
3.09228

>  <SCORE.INTRA.VDW.0>
-2.10232

>  <SCORE.INTRA.norm>
0.0825946

>  <SCORE.RESTR>
0.405485

>  <SCORE.RESTR.CAVITY>
0.405485

>  <SCORE.RESTR.norm>
0.0184311

>  <SCORE.SYSTEM>
-2.74232

>  <SCORE.SYSTEM.CONST>
0

>  <SCORE.SYSTEM.DIHEDRAL>
2.88192

>  <SCORE.SYSTEM.POLAR>
-1.161

>  <SCORE.SYSTEM.REPUL>
0.00126233

>  <SCORE.SYSTEM.VDW>
-0.242208

>  <SCORE.SYSTEM.norm>
-0.124651

>  <SCORE.heavy>
22

>  <SCORE.norm>
3.19355

$$$$
